11
# CELL(abcABC): 3981.86832  3981.86832  3981.86832    90.00000    90.00000    90.00000  Step:        2000  Bead:       0 x_centroid{angstrom}  cell{atomic_unit}
      Fe  1.78112e+01 -7.66584e-01  7.66799e-01
       C  1.61552e+01 -8.83444e-01  1.50958e+00
       C  1.93043e+01 -5.74299e-01 -2.72391e-01
       C  1.80318e+01  8.77888e-01  1.48602e+00
       C  1.84006e+01 -2.06158e+00  1.84065e+00
       C  1.70180e+01 -1.10457e+00 -8.76300e-01
       O  1.51717e+01 -9.86521e-01  2.12526e+00
       O  2.02427e+01 -5.48360e-01 -9.81885e-01
       O  1.82651e+01  1.92578e+00  1.95374e+00
       O  1.89291e+01 -2.87223e+00  2.50215e+00
       O  1.64166e+01 -1.36346e+00 -1.84844e+00
