178
# CELL(abcABC): 3981.86832  3981.86832  3981.86832    90.00000    90.00000    90.00000  Step:        2000  Bead:       0 x_centroid{angstrom}  cell{atomic_unit}
      Fe  1.78112e+01 -7.66584e-01  7.66799e-01
       C  1.61552e+01 -8.83444e-01  1.50958e+00
       C  1.93043e+01 -5.74299e-01 -2.72391e-01
       C  1.80318e+01  8.77888e-01  1.48602e+00
       C  1.84006e+01 -2.06158e+00  1.84065e+00
       C  1.70180e+01 -1.10457e+00 -8.76300e-01
       O  1.51717e+01 -9.86521e-01  2.12526e+00
       O  2.02427e+01 -5.48360e-01 -9.81885e-01
       O  1.82651e+01  1.92578e+00  1.95374e+00
       O  1.89291e+01 -2.87223e+00  2.50215e+00
       O  1.64166e+01 -1.36346e+00 -1.84844e+00
      Fe  8.65319e+00 -2.45937e-01  1.55871e+00
       C  1.00395e+01 -4.26153e-02  3.29198e-01
       C  7.55853e+00 -1.31957e+00  2.45371e+00
       C  7.51310e+00 -3.06690e-01  5.63342e-02
       C  1.00024e+01 -7.28552e-01  2.74571e+00
       C  8.38160e+00  1.45237e+00  2.01093e+00
       O  1.07961e+01  2.73448e-01 -4.86945e-01
       O  6.66306e+00 -1.90857e+00  2.96041e+00
       O  6.99647e+00 -3.71974e-01 -9.76329e-01
       O  1.08667e+01 -1.01110e+00  3.44536e+00
       O  8.18777e+00  2.52670e+00  2.38188e+00
      Fe  2.84701e+01  1.28367e-01  4.20932e-01
       C  2.68094e+01  1.35743e-03  1.13920e+00
       C  3.01418e+01  2.74753e-01 -3.10186e-01
       C  2.85066e+01 -1.62856e+00  1.70546e-01
       C  2.76959e+01  1.23501e+00 -8.02597e-01
       C  2.91467e+01  9.58434e-01  1.85455e+00
       O  2.57376e+01 -6.76608e-02  1.55842e+00
       O  3.12324e+01  2.34146e-01 -7.41955e-01
       O  2.86192e+01 -2.76492e+00  1.26292e-02
       O  2.70896e+01  1.92659e+00 -1.55055e+00
       O  2.94479e+01  1.52234e+00  2.81737e+00
      Fe  3.55021e+01 -5.54506e-02  9.11915e-01
       C  3.51244e+01  8.86356e-01  2.48603e+00
       C  3.58222e+01 -1.07124e+00 -5.01325e-01
       C  3.73358e+01  3.18704e-01  9.37748e-01
       C  3.48577e+01 -1.49052e+00  1.74671e+00
       C  3.48123e+01  1.33633e+00 -7.47448e-02
       O  3.46741e+01  1.51802e+00  3.34599e+00
       O  3.62807e+01 -1.77806e+00 -1.29479e+00
       O  3.84773e+01  6.12274e-01  8.82074e-01
       O  3.46272e+01 -2.46549e+00  2.34242e+00
       O  3.43970e+01  2.24279e+00 -6.45161e-01
      Fe  5.85419e+01 -3.84240e-01 -1.07302e-01
       C  5.79018e+01 -2.02753e+00 -5.73687e-01
       C  5.93314e+01  1.16197e+00  2.67332e-01
       C  5.73888e+01 -1.94038e-01  1.29282e+00
       C  6.02117e+01 -1.24851e+00  8.17729e-03
       C  5.78753e+01  3.15590e-01 -1.63986e+00
       O  5.75615e+01 -3.11006e+00 -8.34105e-01
       O  5.99729e+01  2.12826e+00  4.40295e-01
       O  5.66085e+01 -6.98561e-02  2.19050e+00
       O  6.11225e+01 -1.91867e+00 -1.64451e-01
       O  5.73674e+01  8.47314e-01 -2.52030e+00
      Fe  2.34036e+01  8.22302e-01 -2.59316e-01
       C  2.18980e+01  8.14221e-01 -1.35034e+00
       C  2.48382e+01  7.53051e-01  7.87606e-01
       C  2.43754e+01  1.53702e+00 -1.58439e+00
       C  2.25672e+01  1.86416e+00  9.83686e-01
       C  2.32496e+01 -9.55341e-01  4.81007e-02
       O  2.09257e+01  9.37769e-01 -1.97390e+00
       O  2.57168e+01  6.75926e-01  1.53042e+00
       O  2.51008e+01  1.97833e+00 -2.37420e+00
       O  2.22148e+01  2.58555e+00  1.85933e+00
       O  2.30979e+01 -2.09447e+00  2.44270e-01
      Fe -1.01838e+01  9.60492e-01 -4.01708e-01
       C -1.15233e+01  2.08294e+00 -8.80198e-01
       C -8.84623e+00 -2.62816e-01 -2.93653e-01
       C -1.06895e+01  9.83917e-01  1.32571e+00
       C -1.10303e+01 -2.19755e-01 -1.44509e+00
       C -9.07376e+00  2.27281e+00 -9.12182e-01
       O -1.23937e+01  2.73001e+00 -1.33216e+00
       O -8.13143e+00 -1.15388e+00 -5.47374e-01
       O -1.10238e+01  9.32493e-01  2.41258e+00
       O -1.16953e+01 -8.42295e-01 -2.16637e+00
       O -8.68716e+00  3.31413e+00 -1.27639e+00
      Fe -3.20652e+01  6.90502e-02 -2.65569e-01
       C -3.22218e+01  1.20593e+00  1.14306e+00
       C -3.17291e+01 -8.19517e-01 -1.71621e+00
       C -3.13251e+01 -1.33737e+00  6.63230e-01
       C -3.38765e+01 -1.98509e-02 -1.97399e-01
       C -3.09696e+01  1.33461e+00 -9.57872e-01
       O -3.20600e+01  2.01548e+00  1.96383e+00
       O -3.14147e+01 -1.38331e+00 -2.68866e+00
       O -3.08729e+01 -2.25392e+00  1.17787e+00
       O -3.50532e+01 -1.08011e-01 -1.02303e-01
       O -3.02623e+01  2.06819e+00 -1.54774e+00
      Fe -1.52904e+01 -3.08759e-01 -6.97465e-01
       C -1.43717e+01 -1.72831e+00 -1.56868e-01
       C -1.65705e+01  6.69077e-01 -1.63327e+00
       C -1.47469e+01 -7.55643e-01 -2.41237e+00
       C -1.66287e+01 -7.69543e-01  2.81728e-01
       C -1.44156e+01  8.64461e-01  4.44921e-01
       O -1.36878e+01 -2.58191e+00  2.72633e-01
       O -1.73944e+01  1.29944e+00 -2.14335e+00
       O -1.45148e+01 -1.23596e+00 -3.48350e+00
       O -1.75714e+01 -1.04759e+00  9.26212e-01
       O -1.39568e+01  1.49041e+00  1.34753e+00
      Fe -5.05214e+01  8.55923e-02  5.53184e-01
       C -4.88054e+01  6.23909e-01  6.05510e-01
       C -5.20859e+01 -7.36258e-01  3.64195e-01
       C -5.12232e+01  1.66881e+00  1.29999e+00
       C -5.02287e+01  5.66788e-02 -1.21167e+00
       C -5.00949e+01 -1.11820e+00  1.73346e+00
       O -4.76995e+01  8.50023e-01  4.76717e-01
       O -5.31494e+01 -1.26605e+00  3.68417e-01
       O -5.15569e+01  2.60750e+00  1.89043e+00
       O -5.01192e+01  3.79355e-02 -2.38023e+00
       O -4.97522e+01 -1.90110e+00  2.53791e+00
      Fe  5.33846e+01  1.40706e+00 -1.07221e-01
       C  5.20563e+01  2.39867e+00  5.03905e-01
       C  5.45419e+01  8.45398e-02 -7.94872e-01
       C  5.24005e+01  1.24528e-01  6.29564e-01
       C  5.32362e+01  2.31152e+00 -1.63198e+00
       C  5.46732e+01  2.10954e+00  9.38615e-01
       O  5.12543e+01  3.16953e+00  8.16470e-01
       O  5.51474e+01 -6.77391e-01 -1.47838e+00
       O  5.18064e+01 -5.81523e-01  1.31533e+00
       O  5.31411e+01  2.88505e+00 -2.61291e+00
       O  5.51691e+01  2.73773e+00  1.78694e+00
      Fe  9.65057e-01 -8.38709e-01  1.25434e+00
       C  2.40553e+00 -1.67355e+00  1.85059e+00
       C -5.37792e-01  4.92361e-02  7.71251e-01
       C  1.63720e+00  7.77879e-01  1.72072e+00
       C  1.20084e+00 -1.32483e+00 -4.76342e-01
       C -1.61659e-01 -2.10241e+00  1.98319e+00
       O  3.30540e+00 -2.35256e+00  2.18674e+00
       O -1.52009e+00  6.24322e-01  5.15158e-01
       O  1.79771e+00  1.90292e+00  1.82463e+00
       O  1.12255e+00 -1.69811e+00 -1.57703e+00
       O -8.57742e-01 -2.97513e+00  2.27869e+00
      Fe  1.39196e+01  1.66197e-01  1.15439e-01
       C  1.22611e+01 -3.89772e-01  7.40970e-01
       C  1.55119e+01  7.04580e-01 -3.46371e-01
       C  1.44199e+01  3.00814e-01  1.82922e+00
       C  1.41210e+01 -1.35053e+00 -7.37960e-01
       C  1.31058e+01  1.47436e+00 -8.33581e-01
       O  1.12132e+01 -7.85672e-01  1.05128e+00
       O  1.66016e+01  1.08437e+00 -4.94269e-01
       O  1.47629e+01  3.90111e-01  2.91643e+00
       O  1.41432e+01 -2.38318e+00 -1.25887e+00
       O  1.26285e+01  2.38360e+00 -1.34414e+00
      Fe -4.93199e+00 -1.83119e-01 -4.16651e-01
       C -3.35894e+00 -8.94473e-01  1.80294e-01
       C -6.50899e+00  8.99420e-02 -1.24343e+00
       C -4.10228e+00  3.10445e-01 -1.94124e+00
       C -5.66119e+00 -1.86232e+00  1.65863e-01
       C -4.98674e+00  1.38825e+00  5.21313e-01
       O -2.41109e+00 -1.37229e+00  5.76217e-01
       O -7.60459e+00  1.99717e-01 -1.63118e+00
       O -3.44855e+00  6.81301e-01 -2.87140e+00
       O -6.11174e+00 -2.87139e+00  5.19684e-01
       O -4.86647e+00  2.42074e+00  1.04962e+00
      Fe  6.19247e+01  6.00185e-01 -1.43549e+00
       C  6.03436e+01  1.44822e+00 -1.70574e+00
       C  6.34529e+01 -3.66514e-01 -1.15963e+00
       C  6.21712e+01  1.45335e+00  1.28765e-01
       C  6.09674e+01 -8.61234e-01 -1.39652e+00
       C  6.25951e+01  1.25881e+00 -2.97895e+00
       O  5.93017e+01  1.96692e+00 -1.88051e+00
       O  6.43244e+01 -1.13895e+00 -9.92734e-01
       O  6.23226e+01  1.80671e+00  1.21566e+00
       O  6.03911e+01 -1.92994e+00 -1.32575e+00
       O  6.31875e+01  1.62118e+00 -3.93500e+00
      Fe -3.75593e+01 -1.71297e-01  1.76297e-01
       C -3.63246e+01 -9.62121e-01 -8.96313e-01
       C -3.87899e+01  7.90827e-01  1.08508e+00
       C -3.82079e+01  5.40725e-01 -1.34887e+00
       C -3.82320e+01 -1.79646e+00  6.53645e-01
       C -3.61097e+01  6.59680e-01  9.41660e-01
       O -3.54423e+01 -1.42052e+00 -1.47466e+00
       O -3.95574e+01  1.36661e+00  1.75810e+00
       O -3.87120e+01  1.06031e+00 -2.26290e+00
       O -3.87378e+01 -2.81099e+00  8.79540e-01
       O -3.51671e+01  1.20139e+00  1.33808e+00
  L   1.57561e+00   0.00000e+00   0.00000e+00
  L   0.00000e+00   1.58815e+00   0.00000e+00
